Version 4
SHEET 1 1348 680
WIRE 816 -224 816 -288
WIRE 816 -112 816 -144
WIRE 1072 -112 816 -112
WIRE 1280 -112 1072 -112
WIRE 816 -80 816 -112
WIRE -336 -32 -432 -32
WIRE -160 -32 -336 -32
WIRE -32 -32 -96 -32
WIRE 80 -32 -32 -32
WIRE 224 -32 160 -32
WIRE 752 -32 368 -32
WIRE -32 64 -32 -32
WIRE 816 80 816 16
WIRE 224 112 224 -32
WIRE 224 112 32 112
WIRE 272 112 224 112
WIRE 368 112 368 -32
WIRE 368 112 352 112
WIRE 416 112 368 112
WIRE 464 112 416 112
WIRE 624 112 528 112
WIRE -432 176 -432 -32
WIRE 624 272 624 112
WIRE -32 288 -32 160
WIRE 752 320 688 320
WIRE 880 320 752 320
WIRE 976 320 880 320
WIRE 1072 320 1056 320
WIRE 1136 320 1072 320
WIRE -64 352 -160 352
WIRE -32 352 -32 288
WIRE -32 352 -64 352
WIRE 16 352 -32 352
WIRE 272 352 208 352
WIRE 352 352 272 352
WIRE 432 352 352 352
WIRE 1136 384 1136 320
WIRE 1280 384 1280 -112
WIRE 752 400 752 320
WIRE 880 400 880 320
WIRE -160 416 -160 352
WIRE -64 416 -64 352
WIRE 272 432 272 352
WIRE 432 432 432 352
WIRE 16 448 0 448
WIRE -432 544 -432 256
WIRE -160 544 -160 480
WIRE -160 544 -432 544
WIRE -64 544 -64 480
WIRE -64 544 -160 544
WIRE 0 544 0 448
WIRE 0 544 -64 544
WIRE 272 544 272 496
WIRE 272 544 0 544
WIRE 432 544 432 496
WIRE 432 544 272 544
WIRE 624 544 624 368
WIRE 624 544 432 544
WIRE 752 544 752 480
WIRE 752 544 624 544
WIRE 880 544 880 464
WIRE 880 544 752 544
WIRE 1136 544 1136 464
WIRE 1136 544 880 544
WIRE 1280 544 1280 464
WIRE 1280 544 1136 544
WIRE -432 592 -432 544
FLAG 432 352 5vOut
IOPIN 432 352 Out
FLAG -432 592 0
FLAG -336 -32 Vin
FLAG 352 352 5V
FLAG 416 112 DiodeIn
FLAG -32 288 Reg.In
FLAG 1072 320 PD6
FLAG 816 80 0
FLAG 816 -288 5V
FLAG 1072 -112 PD7
SYMBOL pnp 32 160 R180
SYMATTR InstName Q1
SYMATTR Value 2N3906
SYMBOL schottky -160 -16 R270
WINDOW 0 32 32 VTop 2
WINDOW 3 0 32 VBottom 2
SYMATTR InstName D1
SYMATTR Value BAT54
SYMATTR Description Diode
SYMATTR Type diode
SYMBOL res 176 -48 R90
WINDOW 0 0 56 VBottom 2
WINDOW 3 32 56 VTop 2
SYMATTR InstName R1
SYMATTR Value 33k
SYMBOL res 368 96 R90
WINDOW 0 0 56 VBottom 2
WINDOW 3 32 56 VTop 2
SYMATTR InstName R2
SYMATTR Value 3r3
SYMBOL LED 464 128 R270
WINDOW 0 72 32 VTop 2
WINDOW 3 0 32 VBottom 2
SYMATTR InstName D2
SYMATTR Value STW8B12C
SYMBOL polcap -80 416 R0
WINDOW 3 24 56 Left 2
SYMATTR Value 10µ
SYMATTR InstName C1
SYMATTR Description Capacitor
SYMATTR Type cap
SYMATTR SpiceLine V=16 Irms=460m Rser=0.16 Lser=0
SYMBOL cap -176 416 R0
SYMATTR InstName C2
SYMATTR Value 0.1µ
SYMATTR SpiceLine V=4 Irms=0 Rser=0 Lser=0 mfg="Murata" pn="GRM011R60G103KE01" type="X5R"
SYMBOL polcap 256 432 R0
WINDOW 3 24 56 Left 2
SYMATTR Value 10µ
SYMATTR InstName C3
SYMATTR Description Capacitor
SYMATTR Type cap
SYMATTR SpiceLine V=16 Irms=2.44949 Rser=0.045 Lser=0
SYMBOL cap 416 432 R0
SYMATTR InstName C4
SYMATTR Value 0.1µ
SYMATTR SpiceLine V=25 Irms=0 Rser=0.00799935 Lser=255.135p
SYMBOL References\\LT1021-5 112 400 R0
SYMATTR InstName U2
SYMBOL voltage -432 160 R0
WINDOW 123 0 0 Left 0
WINDOW 39 24 124 Left 2
SYMATTR InstName V1
SYMATTR Value 12
SYMATTR SpiceLine Rser=0.1
SYMBOL npn 688 272 M0
SYMATTR InstName Q2
SYMATTR Value 2N3904
SYMBOL res 736 384 R0
SYMATTR InstName R3
SYMATTR Value 100k
SYMATTR SpiceLine tol=5 pwr=0.25
SYMBOL polcap 864 400 R0
WINDOW 3 24 56 Left 2
SYMATTR InstName C5
SYMATTR Value 10n
SYMATTR Description Capacitor
SYMATTR Type cap
SYMATTR SpiceLine V=16 Irms=0 Rser=11 Lser=0
SYMBOL res 1072 304 R90
WINDOW 0 0 56 VBottom 2
WINDOW 3 32 56 VTop 2
SYMATTR InstName R4
SYMATTR Value 27k
SYMATTR SpiceLine tol=5 pwr=0.25
SYMBOL npn 752 -80 R0
SYMATTR InstName Q3
SYMATTR Value 2N3904
SYMBOL res 800 -240 R0
SYMATTR InstName R5
SYMATTR Value 27k
SYMATTR SpiceLine tol=5 pwr=0.25
SYMBOL res 1120 368 R0
SYMATTR InstName R6
SYMATTR Value 10k
SYMATTR SpiceLine tol=5 pwr=0.25
SYMBOL res 1264 368 R0
SYMATTR InstName R8
SYMATTR Value 10k
SYMATTR SpiceLine tol=5 pwr=0.25
TEXT -464 616 Left 2 !.tran 0.1
